<?xml version="1.0" encoding="UTF-8"?>

<routes xmlns:xsi="http://www.w3.org/2001/XMLSchema-instance" xsi:noNamespaceSchemaLocation="http://sumo.dlr.de/xsd/routes_file.xsd">
    <!-- Route -->
    <route edges="-152088#1 -152088#2 -152088#3" color="yellow" id="route-1"/>
    <vehicle id="-1" depart="2.00" route="route-1"/>
</routes>
