<?xml version="1.0" encoding="UTF-8"?>

<!-- generated on 2023-04-12 21:19:24 by Eclipse SUMO netedit Version 1.14.1
<configuration xmlns:xsi="http://www.w3.org/2001/XMLSchema-instance" xsi:noNamespaceSchemaLocation="http://sumo.dlr.de/xsd/netconvertConfiguration.xsd">

    <input>
        <sumo-net-file value="F:\机荷高速项目\0-路网处理\JH2.net.xml"/>
    </input>

    <output>
        <output-file value="F:\机荷高速项目\0-路网处理\JH2.net.xml"/>
    </output>

    <processing>
        <geometry.min-radius.fix.railways value="false"/>
        <geometry.max-grade.fix value="false"/>
        <offset.disable-normalization value="true"/>
        <lefthand value="false"/>
    </processing>

    <junctions>
        <no-turnarounds value="true"/>
        <junctions.corner-detail value="5"/>
        <junctions.limit-turn-speed value="5.5"/>
        <rectangular-lane-cut value="false"/>
    </junctions>

    <pedestrian>
        <walkingareas value="false"/>
    </pedestrian>

</configuration>
-->

<net version="1.9" junctionCornerDetail="5" limitTurnSpeed="5.50" xmlns:xsi="http://www.w3.org/2001/XMLSchema-instance" xsi:noNamespaceSchemaLocation="http://sumo.dlr.de/xsd/net_file.xsd">

    <location netOffset="-792171.70,-2504146.58" convBoundary="0.00,0.00,39729.67,8747.13" origBoundary="113.842563,22.619017,114.230046,22.692176" projParameter="+proj=utm +zone=49 +ellps=WGS84 +datum=WGS84 +units=m +no_defs"/>

    <type id="highway.bridleway" priority="1" numLanes="1" speed="2.78" allow="pedestrian" oneway="1" width="2.00"/>
    <type id="highway.bus_guideway" priority="1" numLanes="1" speed="27.78" allow="bus" oneway="1"/>
    <type id="highway.cycleway" priority="1" numLanes="1" speed="5.56" allow="bicycle" oneway="0" width="1.00"/>
    <type id="highway.footway" priority="1" numLanes="1" speed="2.78" allow="pedestrian" oneway="1" width="2.00"/>
    <type id="highway.ford" priority="1" numLanes="1" speed="2.78" allow="army" oneway="0"/>
    <type id="highway.living_street" priority="2" numLanes="1" speed="2.78" disallow="tram rail_urban rail rail_electric rail_fast ship" oneway="0"/>
    <type id="highway.motorway" priority="14" numLanes="2" speed="39.44" allow="private emergency authority army vip passenger hov taxi bus coach delivery truck trailer motorcycle evehicle custom1 custom2" oneway="1"/>
    <type id="highway.motorway_link" priority="9" numLanes="1" speed="22.22" allow="private emergency authority army vip passenger hov taxi bus coach delivery truck trailer motorcycle evehicle custom1 custom2" oneway="1"/>
    <type id="highway.path" priority="1" numLanes="1" speed="5.56" allow="pedestrian bicycle" oneway="0" width="2.00"/>
    <type id="highway.pedestrian" priority="1" numLanes="1" speed="2.78" allow="pedestrian" oneway="1" width="2.00"/>
    <type id="highway.primary" priority="12" numLanes="2" speed="27.78" disallow="tram rail_urban rail rail_electric rail_fast ship" oneway="0"/>
    <type id="highway.primary_link" priority="7" numLanes="1" speed="22.22" disallow="tram rail_urban rail rail_electric rail_fast ship" oneway="0"/>
    <type id="highway.raceway" priority="15" numLanes="2" speed="83.33" allow="vip" oneway="0"/>
    <type id="highway.residential" priority="3" numLanes="1" speed="13.89" disallow="tram rail_urban rail rail_electric rail_fast ship" oneway="0"/>
    <type id="highway.secondary" priority="11" numLanes="1" speed="27.78" disallow="tram rail_urban rail rail_electric rail_fast ship" oneway="0"/>
    <type id="highway.secondary_link" priority="6" numLanes="1" speed="22.22" disallow="tram rail_urban rail rail_electric rail_fast ship" oneway="0"/>
    <type id="highway.service" priority="1" numLanes="1" speed="5.56" allow="pedestrian delivery bicycle" oneway="0"/>
    <type id="highway.stairs" priority="1" numLanes="1" speed="1.39" allow="pedestrian" oneway="1" width="2.00"/>
    <type id="highway.step" priority="1" numLanes="1" speed="1.39" allow="pedestrian" oneway="1" width="2.00"/>
    <type id="highway.steps" priority="1" numLanes="1" speed="1.39" allow="pedestrian" oneway="1" width="2.00"/>
    <type id="highway.tertiary" priority="10" numLanes="1" speed="22.22" disallow="tram rail_urban rail rail_electric rail_fast ship" oneway="0"/>
    <type id="highway.tertiary_link" priority="5" numLanes="1" speed="22.22" disallow="tram rail_urban rail rail_electric rail_fast ship" oneway="0"/>
    <type id="highway.track" priority="1" numLanes="1" speed="5.56" allow="pedestrian motorcycle moped bicycle" oneway="0"/>
    <type id="highway.trunk" priority="13" numLanes="2" speed="27.78" disallow="pedestrian bicycle tram rail_urban rail rail_electric rail_fast ship" oneway="0"/>
    <type id="highway.trunk_link" priority="8" numLanes="1" speed="22.22" disallow="pedestrian bicycle tram rail_urban rail rail_electric rail_fast ship" oneway="0"/>
    <type id="highway.unclassified" priority="4" numLanes="1" speed="13.89" disallow="tram rail_urban rail rail_electric rail_fast ship" oneway="0"/>
    <type id="highway.unsurfaced" priority="1" numLanes="1" speed="8.33" disallow="tram rail_urban rail rail_electric rail_fast ship" oneway="0"/>
    <type id="railway.highspeed" priority="21" numLanes="1" speed="69.44" allow="rail_fast" oneway="1"/>
    <type id="railway.light_rail" priority="19" numLanes="1" speed="27.78" allow="rail_urban" oneway="1"/>
    <type id="railway.preserved" priority="16" numLanes="1" speed="27.78" allow="rail" oneway="1"/>
    <type id="railway.rail" priority="20" numLanes="1" speed="44.44" allow="rail" oneway="1"/>
    <type id="railway.subway" priority="18" numLanes="1" speed="27.78" allow="rail_urban" oneway="1"/>
    <type id="railway.tram" priority="17" numLanes="1" speed="13.89" allow="tram" oneway="1"/>

    <edge id=":-304555_0" function="internal">
        <lane id=":-304555_0_0" index="0" allow="private emergency authority army vip passenger hov taxi bus coach delivery truck trailer motorcycle evehicle custom1 custom2" speed="16.67" length="0.23" shape="28156.03,6164.83 28155.81,6164.82"/>
    </edge>
    <edge id=":-304564_0" function="internal">
        <lane id=":-304564_0_0" index="0" allow="private emergency authority army vip passenger hov taxi bus coach delivery truck trailer motorcycle evehicle custom1 custom2" speed="16.67" length="43.16" shape="27971.32,6092.80 27966.22,6086.44 27957.83,6075.95 27949.52,6065.40 27944.69,6058.85"/>
    </edge>
    <edge id=":-304564_1" function="internal">
        <lane id=":-304564_1_0" index="0" allow="private emergency authority army vip passenger hov taxi bus coach delivery truck trailer motorcycle evehicle custom1 custom2" speed="16.67" length="43.14" shape="27973.84,6090.64 27968.22,6084.73 27958.97,6074.97 27949.87,6065.10 27944.69,6058.85"/>
    </edge>
    <edge id=":-304565_0" function="internal">
        <lane id=":-304565_0_0" index="0" allow="private emergency authority army vip passenger hov taxi bus coach delivery truck trailer motorcycle evehicle custom1 custom2" speed="16.67" length="0.10" shape="28301.62,5622.46 28301.62,5622.46"/>
    </edge>
    <edge id=":-304569_0" function="internal">
        <lane id=":-304569_0_0" index="0" allow="private emergency authority army vip passenger hov taxi bus coach delivery truck trailer motorcycle evehicle custom1 custom2" speed="16.67" length="0.28" shape="28361.32,5651.11 28361.40,5651.14 28361.45,5651.16 28361.51,5651.17 28361.59,5651.18"/>
    </edge>
    <edge id=":-304570_0" function="internal">
        <lane id=":-304570_0_0" index="0" allow="private emergency authority army vip passenger hov taxi bus coach delivery truck trailer motorcycle evehicle custom1 custom2" speed="27.78" length="8.49" shape="33324.37,4471.04 33322.24,4469.70 33320.36,4469.42 33318.50,4469.12 33316.42,4467.72"/>
        <lane id=":-304570_0_1" index="1" allow="private emergency authority army vip passenger hov taxi bus coach delivery truck trailer motorcycle evehicle custom1 custom2" speed="27.78" length="8.49" shape="33324.37,4471.04 33318.69,4465.47"/>
        <lane id=":-304570_0_2" index="2" allow="private emergency authority army vip passenger hov taxi bus coach delivery truck trailer motorcycle evehicle custom1 custom2" speed="27.78" length="8.49" shape="33324.37,4471.04 33322.96,4469.01 33322.64,4467.17 33322.33,4465.31 33320.97,4463.22"/>
    </edge>
    <edge id=":-304573_0" function="internal">
        <lane id=":-304573_0_0" index="0" allow="private emergency authority army vip passenger hov taxi bus coach delivery truck trailer motorcycle evehicle custom1 custom2" speed="27.78" length="0.30" shape="16138.70,8084.69 16138.45,8084.81"/>
        <lane id=":-304573_0_1" index="1" allow="private emergency authority army vip passenger hov taxi bus coach delivery truck trailer motorcycle evehicle custom1 custom2" speed="27.78" length="0.30" shape="16137.41,8081.77 16137.13,8081.89"/>
        <lane id=":-304573_0_2" index="2" allow="private emergency authority army vip passenger hov taxi bus coach delivery truck trailer motorcycle evehicle custom1 custom2" speed="27.78" length="0.30" shape="16136.11,8078.84 16135.82,8078.98"/>
    </edge>
    <edge id=":-304576_0" function="internal">
        <lane id=":-304576_0_0" index="0" allow="private emergency authority army vip passenger hov taxi bus coach delivery truck trailer motorcycle evehicle custom1 custom2" speed="27.78" length="0.41" shape="15926.23,8175.20 15925.72,8175.39"/>
        <lane id=":-304576_0_1" index="1" allow="private emergency authority army vip passenger hov taxi bus coach delivery truck trailer motorcycle evehicle custom1 custom2" speed="27.78" length="0.41" shape="15925.06,8172.22 15924.68,8172.37"/>
        <lane id=":-304576_0_2" index="2" allow="private emergency authority army vip passenger hov taxi bus coach delivery truck trailer motorcycle evehicle custom1 custom2" speed="27.78" length="0.41" shape="15923.89,8169.25 15923.63,8169.34"/>
    </edge>
    <edge id=":-304585_0" function="internal">
        <lane id=":-304585_0_0" index="0" allow="private emergency authority army vip passenger hov taxi bus coach delivery truck trailer motorcycle evehicle custom1 custom2" speed="27.78" length="8.78" shape="33338.09,4466.33 33340.21,4467.63 33342.08,4467.85 33343.96,4468.03 33346.16,4469.25"/>
    </edge>
    <edge id=":-304586_0" function="internal">
        <lane id=":-304586_0_0" index="0" allow="private emergency authority army vip passenger hov taxi bus coach delivery truck trailer motorcycle evehicle custom1 custom2" speed="16.67" length="29.90" shape="28173.56,6266.18 28173.49,6255.95 28172.70,6247.59 28171.69,6241.10 28170.97,6236.46"/>
    </edge>
    <edge id=":-304586_1" function="internal">
        <lane id=":-304586_1_0" index="0" disallow="tram rail_urban rail rail_electric rail_fast ship" speed="16.67" length="29.88" shape="28173.56,6266.18 28174.75,6236.33"/>
        <lane id=":-304586_1_1" index="1" disallow="tram rail_urban rail rail_electric rail_fast ship" speed="16.67" length="29.88" shape="28176.75,6266.32 28177.95,6236.46"/>
        <lane id=":-304586_1_2" index="2" disallow="tram rail_urban rail rail_electric rail_fast ship" speed="16.67" length="29.88" shape="28179.95,6266.45 28181.15,6236.59"/>
        <lane id=":-304586_1_3" index="3" disallow="tram rail_urban rail rail_electric rail_fast ship" speed="16.67" length="29.88" shape="28183.15,6266.58 28184.35,6236.72"/>
    </edge>
    <edge id=":-304606_0" function="internal">
        <lane id=":-304606_0_0" index="0" allow="private emergency authority army vip passenger hov taxi bus coach delivery truck trailer motorcycle evehicle custom1 custom2" speed="16.67" length="0.10" shape="27921.43,6001.70 27921.43,6001.70"/>
    </edge>
    <edge id=":-304625_0" function="internal">
        <lane id=":-304625_0_0" index="0" allow="private emergency authority army vip passenger hov taxi bus coach delivery truck trailer motorcycle evehicle custom1 custom2" speed="16.67" length="0.23" shape="28082.01,5629.29 28081.84,5629.45"/>
    </edge>
    <edge id=":-304626_0" function="internal">
        <lane id=":-304626_0_0" index="0" allow="private emergency authority army vip passenger hov taxi bus coach delivery truck trailer motorcycle evehicle custom1 custom2" speed="16.67" length="0.29" shape="27998.53,5708.86 27998.33,5709.06"/>
    </edge>
    <edge id=":-304638_0" function="internal">
        <lane id=":-304638_0_0" index="0" allow="private emergency authority army vip passenger hov taxi bus coach delivery truck trailer motorcycle evehicle custom1 custom2" speed="22.23" length="76.47" shape="28467.30,5654.37 28479.26,5654.25 28501.82,5653.95 28526.22,5653.24 28543.71,5651.94"/>
    </edge>
    <edge id=":-304638_1" function="internal">
        <lane id=":-304638_1_0" index="0" allow="private emergency authority army vip passenger hov taxi bus coach delivery truck trailer motorcycle evehicle custom1 custom2" speed="27.78" length="76.61" shape="28467.51,5657.84 28543.71,5651.94"/>
        <lane id=":-304638_1_1" index="1" allow="private emergency authority army vip passenger hov taxi bus coach delivery truck trailer motorcycle evehicle custom1 custom2" speed="27.78" length="76.61" shape="28467.80,5661.02 28544.19,5655.11"/>
        <lane id=":-304638_1_2" index="2" allow="private emergency authority army vip passenger hov taxi bus coach delivery truck trailer motorcycle evehicle custom1 custom2" speed="27.78" length="76.61" shape="28468.10,5664.21 28544.66,5658.27"/>
    </edge>
    <edge id=":-304653_0" function="internal">
        <lane id=":-304653_0_0" index="0" allow="private emergency authority army vip passenger hov taxi bus coach delivery truck trailer motorcycle evehicle custom1 custom2" speed="16.67" length="34.37" shape="27934.58,5887.71 27934.20,5894.48 27933.64,5904.87 27933.18,5915.27 27933.12,5922.04"/>
    </edge>
    <edge id=":-304653_1" function="internal">
        <lane id=":-304653_1_0" index="0" allow="private emergency authority army vip passenger hov taxi bus coach delivery truck trailer motorcycle evehicle custom1 custom2" speed="16.67" length="34.37" shape="27931.23,5887.72 27933.12,5922.04"/>
    </edge>
    <edge id=":-304654_0" function="internal">
        <lane id=":-304654_0_0" index="0" allow="private emergency authority army vip passenger hov taxi bus coach delivery truck trailer motorcycle evehicle custom1 custom2" speed="22.23" length="102.56" shape="28259.82,5688.97 28157.27,5688.23"/>
    </edge>
    <edge id=":-304654_1" function="internal">
        <lane id=":-304654_1_0" index="0" allow="private emergency authority army vip passenger hov taxi bus coach delivery truck trailer motorcycle evehicle custom1 custom2" speed="27.78" length="102.44" shape="28259.82,5688.97 28157.30,5684.75"/>
        <lane id=":-304654_1_1" index="1" allow="private emergency authority army vip passenger hov taxi bus coach delivery truck trailer motorcycle evehicle custom1 custom2" speed="27.78" length="102.44" shape="28259.78,5685.77 28157.43,5681.56"/>
        <lane id=":-304654_1_2" index="2" allow="private emergency authority army vip passenger hov taxi bus coach delivery truck trailer motorcycle evehicle custom1 custom2" speed="27.78" length="102.44" shape="28259.74,5682.57 28157.57,5678.36"/>
    </edge>
    <edge id=":-304769_0" function="internal">
        <lane id=":-304769_0_0" index="0" disallow="tram rail_urban rail rail_electric rail_fast ship" speed="16.67" length="0.28" shape="19818.18,6681.36 19817.94,6681.50"/>
    </edge>
    <edge id=":-304778_0" function="internal">
        <lane id=":-304778_0_0" index="0" disallow="tram rail_urban rail rail_electric rail_fast ship" speed="16.67" length="19.09" shape="19376.33,6875.40 19372.20,6876.84 19367.51,6878.99 19362.96,6881.43 19359.24,6883.75"/>
    </edge>
    <edge id=":-304778_1" function="internal">
        <lane id=":-304778_1_0" index="0" disallow="tram rail_urban rail rail_electric rail_fast ship" speed="16.67" length="19.02" shape="19376.33,6875.40 19357.94,6880.25"/>
    </edge>
    <edge id=":-304778_2" function="internal">
        <lane id=":-304778_2_0" index="0" disallow="tram rail_urban rail rail_electric rail_fast ship" speed="6.82" length="6.09" shape="19376.33,6875.40 19375.12,6875.48 19373.83,6875.11 19372.47,6874.27 19371.03,6872.98"/>
    </edge>
    <edge id=":-304779_0" function="internal">
        <lane id=":-304779_0_0" index="0" disallow="tram rail_urban rail rail_electric rail_fast ship" speed="16.67" length="0.20" shape="19349.79,6882.40 19349.59,6882.45"/>
    </edge>
    <edge id=":-304781_0" function="internal">
        <lane id=":-304781_0_0" index="0" allow="private emergency authority army vip passenger hov taxi bus coach delivery truck trailer motorcycle evehicle custom1 custom2" speed="16.67" length="0.28" shape="27990.36,5708.50 27990.56,5708.30"/>
    </edge>
    <edge id=":-304782_0" function="internal">
        <lane id=":-304782_0_0" index="0" allow="private emergency authority army vip passenger hov taxi bus coach delivery truck trailer motorcycle evehicle custom1 custom2" speed="16.67" length="0.10" shape="28074.79,5627.65 28074.79,5627.65"/>
    </edge>
    <edge id=":-304790_0" function="internal">
        <lane id=":-304790_0_0" index="0" allow="private emergency authority army vip passenger hov taxi bus coach delivery truck trailer motorcycle evehicle custom1 custom2" speed="27.78" length="0.37" shape="16182.68,8065.17 16182.24,8065.38"/>
        <lane id=":-304790_0_1" index="1" allow="private emergency authority army vip passenger hov taxi bus coach delivery truck trailer motorcycle evehicle custom1 custom2" speed="27.78" length="0.37" shape="16181.28,8062.30 16180.94,8062.46"/>
        <lane id=":-304790_0_2" index="2" allow="private emergency authority army vip passenger hov taxi bus coach delivery truck trailer motorcycle evehicle custom1 custom2" speed="27.78" length="0.37" shape="16179.87,8059.42 16179.64,8059.53"/>
    </edge>
    <edge id=":-304791_0" function="internal">
        <lane id=":-304791_0_0" index="0" allow="private emergency authority army vip passenger hov taxi bus coach delivery truck trailer motorcycle evehicle custom1 custom2" speed="16.67" length="0.10" shape="21349.83,7537.31 21349.83,7537.31"/>
    </edge>
    <edge id=":-304825_0" function="internal">
        <lane id=":-304825_0_0" index="0" allow="private emergency authority army vip passenger hov taxi bus coach delivery truck trailer motorcycle evehicle custom1 custom2" speed="22.23" length="33.80" shape="20728.00,7575.03 20723.00,7574.79 20715.63,7574.44 20706.07,7574.41 20694.51,7575.14"/>
        <lane id=":-304825_0_1" index="1" allow="private emergency authority army vip passenger hov taxi bus coach delivery truck trailer motorcycle evehicle custom1 custom2" speed="22.23" length="33.80" shape="20728.00,7575.03 20722.98,7574.29 20715.55,7572.84 20705.89,7571.71 20694.19,7571.95"/>
    </edge>
    <edge id=":-304825_2" function="internal">
        <lane id=":-304825_2_0" index="0" allow="private emergency authority army vip passenger hov taxi bus coach delivery truck trailer motorcycle evehicle custom1 custom2" speed="27.78" length="33.50" shape="20727.82,7571.37 20694.51,7575.14"/>
        <lane id=":-304825_2_1" index="1" allow="private emergency authority army vip passenger hov taxi bus coach delivery truck trailer motorcycle evehicle custom1 custom2" speed="27.78" length="33.50" shape="20727.48,7568.19 20694.19,7571.95"/>
        <lane id=":-304825_2_2" index="2" allow="private emergency authority army vip passenger hov taxi bus coach delivery truck trailer motorcycle evehicle custom1 custom2" speed="27.78" length="33.50" shape="20727.15,7565.01 20693.87,7568.77"/>
        <lane id=":-304825_2_3" index="3" allow="private emergency authority army vip passenger hov taxi bus coach delivery truck trailer motorcycle evehicle custom1 custom2" speed="27.78" length="33.50" shape="20726.81,7561.83 20693.55,7565.59"/>
    </edge>
    <edge id=":-304826_0" function="internal">
        <lane id=":-304826_0_0" index="0" disallow="tram rail_urban rail rail_electric rail_fast ship" speed="16.67" length="15.31" shape="19316.53,6802.07 19317.44,6805.75 19318.86,6809.34 19320.70,6812.73 19322.92,6815.81"/>
    </edge>
    <edge id=":-304826_1" function="internal">
        <lane id=":-304826_1_0" index="0" disallow="tram rail_urban rail rail_electric rail_fast ship" speed="16.67" length="15.23" shape="19316.53,6802.07 19319.13,6817.08"/>
    </edge>
    <edge id=":-304833_0" function="internal">
        <lane id=":-304833_0_0" index="0" disallow="tram rail_urban rail rail_electric rail_fast ship" speed="16.67" length="12.18" shape="19359.40,6839.93 19362.70,6840.43 19365.48,6840.89 19368.24,6841.00 19371.46,6840.45"/>
    </edge>
    <edge id=":-304833_1" function="internal">
        <lane id=":-304833_1_0" index="0" disallow="tram rail_urban rail rail_electric rail_fast ship" speed="16.67" length="12.20" shape="19359.68,6843.62 19371.46,6840.45"/>
    </edge>
    <edge id=":-304833_2" function="internal">
        <lane id=":-304833_2_0" index="0" disallow="tram rail_urban rail rail_electric rail_fast ship" speed="7.25" length="6.33" shape="19367.76,6845.31 19368.52,6843.41 19369.39,6841.97 19370.37,6840.98 19371.46,6840.45"/>
    </edge>
    <edge id=":-304834_0" function="internal">
        <lane id=":-304834_0_0" index="0" allow="private emergency authority army vip passenger hov taxi bus coach delivery truck trailer motorcycle evehicle custom1 custom2" speed="16.67" length="0.23" shape="28219.32,6166.73 28219.09,6166.72"/>
    </edge>
    <edge id=":-304835_0" function="internal">
        <lane id=":-304835_0_0" index="0" allow="private emergency authority army vip passenger hov taxi bus coach delivery truck trailer motorcycle evehicle custom1 custom2" speed="16.67" length="0.30" shape="28219.28,6159.62 28219.58,6159.62"/>
    </edge>
    <edge id=":-304854_0" function="internal">
        <lane id=":-304854_0_0" index="0" allow="private emergency authority army vip passenger hov taxi bus coach delivery truck trailer motorcycle evehicle custom1 custom2" speed="16.67" length="11.40" shape="28197.56,6286.33 28196.07,6289.19 28194.81,6291.41 28193.91,6293.73 28193.47,6296.84"/>
    </edge>
    <edge id=":-304854_1" function="internal">
        <lane id=":-304854_1_0" index="0" disallow="tram rail_urban rail rail_electric rail_fast ship" speed="16.67" length="11.38" shape="28193.94,6285.46 28193.47,6296.84"/>
    </edge>
    <edge id=":-304855_0" function="internal">
        <lane id=":-304855_0_0" index="0" allow="private emergency authority army vip passenger hov taxi bus coach delivery truck trailer motorcycle evehicle custom1 custom2" speed="16.67" length="0.10" shape="21338.71,7446.73 21338.71,7446.73"/>
    </edge>
    <edge id=":-304860_0" function="internal">
        <lane id=":-304860_0_0" index="0" allow="private emergency authority army vip passenger hov taxi bus coach delivery truck trailer motorcycle evehicle custom1 custom2" speed="16.67" length="0.10" shape="28156.27,6157.76 28156.27,6157.76"/>
    </edge>
    <edge id=":-304861_0" function="internal">
        <lane id=":-304861_0_0" index="0" allow="private emergency authority army vip passenger hov taxi bus coach delivery truck trailer motorcycle evehicle custom1 custom2" speed="16.67" length="0.34" shape="33429.24,4885.87 33429.14,4885.87 33429.07,4885.87 33429.00,4885.86 33428.90,4885.84"/>
    </edge>
    <edge id=":-304863_0" function="internal">
        <lane id=":-304863_0_0" index="0" allow="private emergency authority army vip passenger hov taxi bus coach delivery truck trailer motorcycle evehicle custom1 custom2" speed="16.67" length="28.24" shape="33376.21,4873.76 33371.28,4872.34 33364.41,4870.38 33356.57,4868.51 33348.76,4867.33"/>
    </edge>
    <edge id=":-304863_1" function="internal">
        <lane id=":-304863_1_0" index="0" allow="private emergency authority army vip passenger hov taxi bus coach delivery truck trailer motorcycle evehicle custom1 custom2" speed="16.67" length="28.26" shape="33376.88,4869.98 33348.76,4867.33"/>
        <lane id=":-304863_1_1" index="1" allow="private emergency authority army vip passenger hov taxi bus coach delivery truck trailer motorcycle evehicle custom1 custom2" speed="16.67" length="28.26" shape="33377.17,4866.79 33349.03,4864.14"/>
    </edge>
    <edge id=":-304864_0" function="internal">
        <lane id=":-304864_0_0" index="0" allow="private emergency authority army vip passenger hov taxi bus coach delivery truck trailer motorcycle evehicle custom1 custom2" speed="16.67" length="11.42" shape="28197.84,6190.93 28198.01,6194.07 28198.72,6196.46 28199.79,6198.78 28201.04,6201.75"/>
    </edge>
    <edge id=":-304864_1" function="internal">
        <lane id=":-304864_1_0" index="0" disallow="tram rail_urban rail rail_electric rail_fast ship" speed="16.67" length="11.40" shape="28197.84,6190.93 28197.37,6202.33"/>
    </edge>
    <edge id=":-304885_0" function="internal">
        <lane id=":-304885_0_0" index="0" allow="private emergency authority army vip passenger hov taxi bus coach delivery truck trailer motorcycle evehicle custom1 custom2" speed="27.78" length="0.30" shape="16175.17,8042.76 16175.40,8042.65"/>
        <lane id=":-304885_0_1" index="1" allow="private emergency authority army vip passenger hov taxi bus coach delivery truck trailer motorcycle evehicle custom1 custom2" speed="27.78" length="0.30" shape="16176.58,8045.64 16176.84,8045.50"/>
        <lane id=":-304885_0_2" index="2" allow="private emergency authority army vip passenger hov taxi bus coach delivery truck trailer motorcycle evehicle custom1 custom2" speed="27.78" length="0.30" shape="16177.99,8048.51 16178.28,8048.36"/>
    </edge>
    <edge id=":-304888_0" function="internal">
        <lane id=":-304888_0_0" index="0" allow="private emergency authority army vip passenger hov taxi bus coach delivery truck trailer motorcycle evehicle custom1 custom2" speed="27.78" length="0.35" shape="16407.95,7933.27 16408.17,7933.18"/>
        <lane id=":-304888_0_1" index="1" allow="private emergency authority army vip passenger hov taxi bus coach delivery truck trailer motorcycle evehicle custom1 custom2" speed="27.78" length="0.35" shape="16409.18,7936.23 16409.50,7936.09"/>
        <lane id=":-304888_0_2" index="2" allow="private emergency authority army vip passenger hov taxi bus coach delivery truck trailer motorcycle evehicle custom1 custom2" speed="27.78" length="0.35" shape="16410.41,7939.18 16410.83,7939.00"/>
    </edge>
    <edge id=":-304903_0" function="internal">
        <lane id=":-304903_0_0" index="0" allow="private emergency authority army vip passenger hov taxi bus coach delivery truck trailer motorcycle evehicle custom1 custom2" speed="16.67" length="41.48" shape="27965.22,6053.53 27969.18,6060.33 27976.13,6071.15 27983.30,6081.83 27987.88,6088.25"/>
    </edge>
    <edge id=":-304903_1" function="internal">
        <lane id=":-304903_1_0" index="0" allow="private emergency authority army vip passenger hov taxi bus coach delivery truck trailer motorcycle evehicle custom1 custom2" speed="16.67" length="41.46" shape="27965.22,6053.53 27984.88,6090.03"/>
    </edge>
    <edge id=":-304913_0" function="internal">
        <lane id=":-304913_0_0" index="0" allow="private emergency authority army vip passenger hov taxi bus coach delivery truck trailer motorcycle evehicle custom1 custom2" speed="16.67" length="24.72" shape="21266.09,7333.39 21269.99,7336.92 21275.50,7341.38 21281.08,7345.76 21285.23,7349.02"/>
    </edge>
    <edge id=":-304913_1" function="internal">
        <lane id=":-304913_1_0" index="0" allow="private emergency authority army vip passenger hov taxi bus coach delivery truck trailer motorcycle evehicle custom1 custom2" speed="16.67" length="24.72" shape="21266.09,7333.39 21282.90,7351.51"/>
    </edge>
    <edge id=":-304924_0" function="internal">
        <lane id=":-304924_0_0" index="0" disallow="tram rail_urban rail rail_electric rail_fast ship" speed="16.67" length="15.20" shape="19733.46,6715.10 19736.65,6713.09 19739.54,6710.60 19742.12,6707.77 19744.35,6704.70"/>
    </edge>
    <edge id=":-304924_1" function="internal">
        <lane id=":-304924_1_0" index="0" disallow="tram rail_urban rail rail_electric rail_fast ship" speed="16.67" length="15.15" shape="19733.46,6715.10 19746.65,6707.65"/>
    </edge>
    <edge id=":-304925_0" function="internal">
        <lane id=":-304925_0_0" index="0" disallow="tram rail_urban rail rail_electric rail_fast ship" speed="16.67" length="0.30" shape="19769.48,6694.61 19769.74,6694.47"/>
    </edge>
    <edge id=":-304930_0" function="internal">
        <lane id=":-304930_0_0" index="0" disallow="tram rail_urban rail rail_electric rail_fast ship" speed="16.67" length="15.51" shape="19829.76,6656.25 19833.51,6655.40 19837.37,6654.56 19841.14,6653.51 19844.63,6652.00"/>
    </edge>
    <edge id=":-304930_1" function="internal">
        <lane id=":-304930_1_0" index="0" disallow="tram rail_urban rail rail_electric rail_fast ship" speed="16.67" length="15.51" shape="19831.08,6659.55 19844.63,6652.00"/>
    </edge>
    <edge id=":-304945_0" function="internal">
        <lane id=":-304945_0_0" index="0" allow="private emergency authority army vip passenger hov taxi bus coach delivery truck trailer motorcycle evehicle custom1 custom2" speed="27.78" length="0.29" shape="16134.09,8062.96 16134.30,8062.86"/>
        <lane id=":-304945_0_1" index="1" allow="private emergency authority army vip passenger hov taxi bus coach delivery truck trailer motorcycle evehicle custom1 custom2" speed="27.78" length="0.29" shape="16135.45,8065.85 16135.71,8065.73"/>
        <lane id=":-304945_0_2" index="2" allow="private emergency authority army vip passenger hov taxi bus coach delivery truck trailer motorcycle evehicle custom1 custom2" speed="27.78" length="0.29" shape="16136.81,8068.75 16137.12,8068.60"/>
    </edge>